@<TRIPOS>MOLECULE
1.pdb
 25 25 1 0 0
SMALL
AMBER ff12SB


@<TRIPOS>ATOM
      1 C          -5.9255   13.7014   25.3726 C.3     1  LIG        -0.0649
      2 C          -5.2027   14.4656   24.2711 C.3     1  LIG        -0.0476
      3 C          -4.4072   13.5488   23.3395 C.3     1  LIG         0.0241
      4 C          -3.6880   14.3285   22.2441 C.2     1  LIG         0.2123
      5 O          -4.1210   15.3654   21.7520 O.2     1  LIG        -0.2777
      6 N          -2.4819   13.7780   21.8656 N.am    1  LIG        -0.3028
      7 C          -1.2253   14.5104   21.9947 C.3     1  LIG         0.1107
      8 C          -0.3559   14.0217   23.1334 C.3     1  LIG        -0.0007
      9 C           1.0359   14.3390   22.6526 C.3     1  LIG         0.0587
     10 O           0.9990   14.1973   21.2339 O.3     1  LIG        -0.3144
     11 C          -0.2968   14.3067   20.8049 C.2     1  LIG         0.2815
     12 O          -0.6382   14.2582   19.6362 O.2     1  LIG        -0.2644
     13 H          -6.5243   14.3902   25.9771 H       1  LIG         0.0231
     14 H          -5.2187   13.1979   26.0397 H       1  LIG         0.0231
     15 H          -6.6008   12.9481   24.9532 H       1  LIG         0.0231
     16 H          -4.5352   15.2054   24.7293 H       1  LIG         0.0269
     17 H          -5.9416   15.0257   23.6874 H       1  LIG         0.0269
     18 H          -5.0832   12.8313   22.8624 H       1  LIG         0.0364
     19 H          -3.6632   12.9868   23.9166 H       1  LIG         0.0364
     20 H          -2.4818   12.9501   21.2772 H       1  LIG         0.1502
     21 H          -1.4320   15.5844   22.0835 H       1  LIG         0.0615
     22 H          -0.4678   12.9389   23.2649 H       1  LIG         0.0315
     23 H          -0.5841   14.5007   24.0898 H       1  LIG         0.0315
     24 H           1.7745   13.6497   23.0736 H       1  LIG         0.0574
     25 H           1.3360   15.3649   22.8917 H       1  LIG         0.0574
@<TRIPOS>BOND
     1     1     2    1
     2     1    13    1
     3     1    14    1
     4     1    15    1
     5     2     3    1
     6     2    16    1
     7     2    17    1
     8     3     4    1
     9     3    18    1
    10     3    19    1
    11     4     5    2
    12     4     6   am
    13     6     7    1
    14     6    20    1
    15     7     8    1
    16     7    11    1
    17     7    21    1
    18     8     9    1
    19     8    22    1
    20     8    23    1
    21     9    10    1
    22     9    24    1
    23     9    25    1
    24    10    11    1
    25    11    12    2
@<TRIPOS>SUBSTRUCTURE
     1 LIG         1 TEMP              0 ****  ****    0 ROOT


