@<TRIPOS>MOLECULE
1.pdb
25 25 1 0 0
SMALL
AMBER ff12SB


@<TRIPOS>ATOM
      1 C           0.9410   -0.0470   -0.2110 C.3       1 LIG   -0.0649
      2 C           2.4530    0.1340   -0.1870 C.3       1 LIG   -0.0476
      3 C           3.1910   -0.9510   -0.9740 C.3       1 LIG    0.0241
      4 C           4.7030   -0.7570   -0.9390 C.2       1 LIG    0.2123
      5 O           5.2560    0.1680   -0.3530 O.2       1 LIG   -0.2777
      6 N           5.4080   -1.7350   -1.6080 N.am      1 LIG   -0.3028
      7 C           6.8640   -1.7010   -1.7130 C.3       1 LIG    0.1107
      8 C           7.5680   -1.7920   -0.3760 C.3       1 LIG   -0.0007
      9 C           8.8760   -2.4500   -0.7300 C.3       1 LIG    0.0587
     10 O           8.5890   -3.3250   -1.8190 O.3       1 LIG   -0.3144
     11 C           7.4340   -2.9170   -2.4310 C.2       1 LIG    0.2815
     12 O           6.9530   -3.4530   -3.4140 O.2       1 LIG   -0.2644
     13 H           0.4550    0.7810    0.3150 H         1 LIG    0.0231
     14 H           0.6420   -0.9780    0.2810 H         1 LIG    0.0231
     15 H           0.5610   -0.0620   -1.2380 H         1 LIG    0.0231
     16 H           2.7950    0.1400    0.8550 H         1 LIG    0.0269
     17 H           2.6970    1.1170   -0.6050 H         1 LIG    0.0269
     18 H           2.8670   -0.9330   -2.0200 H         1 LIG    0.0364
     19 H           2.9540   -1.9380   -0.5590 H         1 LIG    0.0364
     20 H           4.9090   -2.3610   -2.2330 H         1 LIG    0.1502
     21 H           7.1730   -0.8050   -2.2660 H         1 LIG    0.0615
     22 H           7.0030   -2.4310    0.3130 H         1 LIG    0.0315
     23 H           7.7090   -0.8210    0.1070 H         1 LIG    0.0315
     24 H           9.2780   -3.0250    0.1100 H         1 LIG    0.0574
     25 H           9.6320   -1.7270   -1.0550 H         1 LIG    0.0574
@<TRIPOS>BOND
     1    1    2 1
     2    1   13 1
     3    1   14 1
     4    1   15 1
     5    2    3 1
     6    2   16 1
     7    2   17 1
     8    3    4 1
     9    3   18 1
    10    3   19 1
    11    4    5 2
    12    4    6 am
    13    6    7 1
    14    6   20 1
    15    7    8 1
    16    7   11 1
    17    7   21 1
    18    8    9 1
    19    8   22 1
    20    8   23 1
    21    9   10 1
    22    9   24 1
    23    9   25 1
    24   10   11 1
    25   11   12 2
@<TRIPOS>SUBSTRUCTURE
     1 LIG     1 RESIDUE           4 A     LIG     0 ROOT
